Version 4
SHEET 1 2868 1024
WIRE 1520 144 1088 144
WIRE 528 176 416 176
WIRE 800 176 528 176
WIRE 864 176 800 176
WIRE 528 208 528 176
WIRE 1520 208 1520 144
WIRE 752 224 688 224
WIRE 800 224 800 176
WIRE 752 240 752 224
WIRE 1088 288 1088 144
WIRE 752 304 752 288
WIRE 752 304 688 304
WIRE 1520 336 1520 288
WIRE 528 352 528 288
WIRE 640 352 528 352
WIRE 800 352 800 304
WIRE 800 352 720 352
WIRE 1520 368 1520 336
WIRE 800 464 800 432
WIRE 832 464 800 464
WIRE 1504 464 1504 432
WIRE 1504 464 1456 464
WIRE 832 496 832 464
WIRE 864 496 864 176
WIRE 1456 544 1456 464
WIRE 848 608 848 560
WIRE 848 640 848 608
WIRE 1264 640 1200 640
WIRE 1456 640 1456 624
WIRE 1456 640 1344 640
WIRE 416 672 416 176
WIRE 1408 720 1328 720
WIRE 1456 720 1456 640
WIRE 1408 736 1408 720
WIRE 1200 768 1200 640
WIRE 416 800 416 752
WIRE 848 800 848 720
WIRE 848 800 416 800
WIRE 1408 800 1408 784
WIRE 1408 800 1328 800
WIRE 416 880 416 800
WIRE 1088 880 1088 368
WIRE 1200 880 1200 848
WIRE 1200 880 1088 880
WIRE 1456 880 1456 800
WIRE 1456 880 1200 880
WIRE 1536 880 1536 432
WIRE 1536 880 1456 880
WIRE 1088 992 1088 880
FLAG 416 880 0
FLAG 1088 992 0
FLAG 848 608 outp
FLAG 1520 336 outn
SYMBOL voltage 416 656 R0
WINDOW 123 0 0 Left 0
WINDOW 39 0 0 Left 0
SYMATTR InstName V4
SYMATTR Value 170V
SYMBOL AutoGenerated\\Si7119DN 848 528 R270
SYMATTR InstName U1
SYMBOL voltage 528 192 R0
WINDOW 123 0 0 Left 0
WINDOW 39 0 0 Left 0
WINDOW 3 24 44 Left 2
SYMATTR Value 5V
SYMATTR InstName V3
SYMBOL res 832 624 R0
SYMATTR InstName R4
SYMATTR Value 200
SYMBOL sw 800 208 R0
SYMATTR InstName S1
SYMATTR Value hvSW
SYMBOL res 736 336 R90
WINDOW 0 0 56 VBottom 2
WINDOW 3 32 56 VTop 2
SYMATTR InstName R7
SYMATTR Value 2k
SYMBOL voltage 688 320 R180
WINDOW 0 -32 56 VBottom 2
WINDOW 3 32 56 VTop 2
WINDOW 123 0 0 Left 0
WINDOW 39 0 0 Left 0
SYMATTR InstName V5
SYMATTR Value PULSE(0V 5V 0 0 0 50us 100us)
SYMBOL voltage 1200 752 R0
WINDOW 123 0 0 Left 0
WINDOW 39 0 0 Left 0
WINDOW 3 27 95 Left 2
SYMATTR Value 5V
SYMATTR InstName V6
SYMBOL voltage 1088 272 R0
WINDOW 123 0 0 Left 0
WINDOW 39 0 0 Left 0
SYMATTR InstName V7
SYMATTR Value 170V
SYMBOL res 1504 192 R0
SYMATTR InstName R10
SYMATTR Value 200
SYMBOL sw 1456 704 R0
SYMATTR InstName S4
SYMATTR Value hvSW
SYMBOL res 1360 624 R90
WINDOW 0 0 56 VBottom 2
WINDOW 3 32 56 VTop 2
SYMATTR InstName R13
SYMATTR Value 2k
SYMBOL voltage 1328 816 M180
WINDOW 0 -32 56 VBottom 2
WINDOW 3 32 56 VTop 2
WINDOW 123 0 0 Left 0
WINDOW 39 0 0 Left 0
SYMATTR InstName V9
SYMATTR Value PULSE(5V 0V 0 0 0 50us 100us)
SYMBOL AutoGenerated\\STN4NF20L 1520 400 M90
SYMATTR InstName U2
SYMBOL res 1440 528 R0
SYMATTR InstName R1
SYMATTR Value 100
SYMBOL res 784 336 R0
SYMATTR InstName R2
SYMATTR Value 100
TEXT 344 976 Left 2 !.tran 0 1ms 0
TEXT 352 1008 Left 2 !.model hvSW SW(Ron=0.1 Roff=100meg Vt=2.5V Vh=0)
