Version 4
SHEET 1 2868 1024
WIRE 944 -496 832 -496
WIRE 1440 -496 944 -496
WIRE 1472 -496 1440 -496
WIRE 1536 -496 1472 -496
WIRE 944 -464 944 -496
WIRE 1344 -464 1248 -464
WIRE 1200 -448 1136 -448
WIRE 1248 -448 1248 -464
WIRE 1200 -432 1200 -448
WIRE 1344 -416 1344 -464
WIRE 1440 -416 1344 -416
WIRE 1440 -400 1440 -416
WIRE 1472 -400 1472 -496
WIRE 1200 -368 1200 -384
WIRE 1200 -368 1136 -368
WIRE 944 -320 944 -384
WIRE 1248 -320 1248 -368
WIRE 1248 -320 944 -320
WIRE 1312 -320 1248 -320
WIRE 1456 -320 1456 -336
WIRE 1456 -320 1392 -320
WIRE 1472 -320 1456 -320
WIRE 1472 -208 1472 -240
WIRE 1488 -208 1472 -208
WIRE 1504 -208 1488 -208
WIRE 1504 -176 1504 -208
WIRE 1536 -176 1536 -496
WIRE 1520 -64 1520 -112
WIRE 1520 -32 1520 -64
WIRE 832 0 832 -496
WIRE 1520 128 1520 48
WIRE 1808 128 1600 128
WIRE 1808 144 1808 128
WIRE 1520 208 1520 128
WIRE 1808 288 1808 224
WIRE 1520 336 1520 288
WIRE 1520 368 1520 336
WIRE 1504 464 1504 432
WIRE 1504 464 1456 464
WIRE 1456 496 1456 464
WIRE 1456 544 1456 496
WIRE 1264 640 1200 640
WIRE 1456 640 1456 624
WIRE 1456 640 1344 640
WIRE 1408 720 1328 720
WIRE 1456 720 1456 640
WIRE 1408 736 1408 720
WIRE 1200 768 1200 640
WIRE 1408 800 1408 784
WIRE 1408 800 1328 800
WIRE 832 880 832 80
WIRE 1088 880 832 880
WIRE 1200 880 1200 848
WIRE 1200 880 1088 880
WIRE 1456 880 1456 800
WIRE 1456 880 1200 880
WIRE 1536 880 1536 432
WIRE 1536 880 1456 880
WIRE 1088 992 1088 880
FLAG 1088 992 0
FLAG 1520 -64 outp
FLAG 1520 336 outn
FLAG 1808 288 0
FLAG 1520 128 out
FLAG 1488 -208 pgate
FLAG 1456 496 ngate
SYMBOL voltage 832 -16 R0
WINDOW 123 0 0 Left 0
WINDOW 39 0 0 Left 0
SYMATTR InstName V4
SYMATTR Value 170V
SYMBOL AutoGenerated\\Si7119DN 1520 -144 R270
SYMATTR InstName U1
SYMBOL voltage 944 -480 R0
WINDOW 123 0 0 Left 0
WINDOW 39 0 0 Left 0
WINDOW 3 24 44 Left 2
SYMATTR Value 5V
SYMATTR InstName V3
SYMBOL res 1504 -48 R0
SYMATTR InstName R4
SYMATTR Value 0.1
SYMBOL sw 1248 -464 R0
SYMATTR InstName S1
SYMATTR Value hvSW
SYMBOL res 1408 -336 R90
WINDOW 0 0 56 VBottom 2
WINDOW 3 32 56 VTop 2
SYMATTR InstName R7
SYMATTR Value 1k
SYMBOL voltage 1136 -352 R180
WINDOW 0 -32 56 VBottom 2
WINDOW 3 32 56 VTop 2
WINDOW 123 0 0 Left 0
WINDOW 39 0 0 Left 0
SYMATTR InstName V5
SYMATTR Value PULSE(0V 5V 0 0 0 50us 100us)
SYMBOL voltage 1200 752 R0
WINDOW 123 0 0 Left 0
WINDOW 39 0 0 Left 0
WINDOW 3 27 95 Left 2
SYMATTR Value 5V
SYMATTR InstName V6
SYMBOL res 1504 192 R0
SYMATTR InstName R10
SYMATTR Value 0.1
SYMBOL sw 1456 704 R0
SYMATTR InstName S4
SYMATTR Value hvSW
SYMBOL res 1360 624 R90
WINDOW 0 0 56 VBottom 2
WINDOW 3 32 56 VTop 2
SYMATTR InstName R13
SYMATTR Value 2.2k
SYMBOL voltage 1328 816 M180
WINDOW 0 -32 56 VBottom 2
WINDOW 3 32 56 VTop 2
WINDOW 123 0 0 Left 0
WINDOW 39 0 0 Left 0
SYMATTR InstName V9
SYMATTR Value PULSE(5V 0V 0 0 0 50us 100us)
SYMBOL AutoGenerated\\STN4NF20L 1520 400 M90
SYMATTR InstName U2
SYMBOL res 1440 528 R0
SYMATTR InstName R1
SYMATTR Value 100
SYMBOL res 1456 -336 R0
SYMATTR InstName R2
SYMATTR Value 100
SYMBOL AutoGenerated\\RZM001P02 1456 -368 R270
SYMATTR InstName U3
SYMBOL res 1456 -400 R180
WINDOW 0 36 76 Left 2
WINDOW 3 36 40 Left 2
SYMATTR InstName R3
SYMATTR Value 10k
SYMBOL res 1616 112 R90
WINDOW 0 0 56 VBottom 2
WINDOW 3 32 56 VTop 2
SYMATTR InstName R5
SYMATTR Value 5k
SYMBOL voltage 1808 128 R0
WINDOW 123 0 0 Left 0
WINDOW 39 0 0 Left 0
SYMATTR InstName V1
SYMATTR Value 85V
TEXT 344 976 Left 2 !.tran 0 0.3ms 0
TEXT 352 1008 Left 2 !.model hvSW SW(Ron=0.1 Roff=100meg Vt=2.5V Vh=0)
