Version 4
SHEET 1 880 680
WIRE 272 112 256 112
WIRE 304 112 272 112
WIRE 448 112 384 112
WIRE 448 144 448 112
WIRE 256 160 256 112
WIRE 256 160 224 160
WIRE -16 176 -64 176
WIRE 112 176 64 176
WIRE 160 176 112 176
WIRE 272 192 224 192
WIRE 336 192 272 192
WIRE 448 256 448 224
WIRE -64 288 -64 256
WIRE 336 288 336 272
WIRE 336 384 336 368
FLAG 336 384 0
FLAG -64 288 0
FLAG 448 256 0
FLAG 112 176 Drain
FLAG 272 192 Source
FLAG 272 112 Gate
SYMBOL AutoGenerated\\STN4NF20L 192 176 R0
SYMATTR InstName U1
SYMBOL voltage 448 128 R0
WINDOW 123 0 0 Left 0
WINDOW 39 0 0 Left 0
SYMATTR InstName V1
SYMATTR Value 5V
SYMBOL voltage -64 160 R0
WINDOW 123 0 0 Left 0
WINDOW 39 0 0 Left 0
SYMATTR InstName V2
SYMATTR Value 50V
SYMBOL res 352 288 R180
WINDOW 0 36 76 Left 2
WINDOW 3 36 40 Left 2
SYMATTR InstName R1
SYMATTR Value 0.1
SYMBOL res 400 96 R90
WINDOW 0 0 56 VBottom 2
WINDOW 3 32 56 VTop 2
SYMATTR InstName R2
SYMATTR Value 0.1
SYMBOL res 80 160 R90
WINDOW 0 0 56 VBottom 2
WINDOW 3 32 56 VTop 2
SYMATTR InstName R3
SYMATTR Value 100
SYMBOL voltage 336 272 R0
WINDOW 123 0 0 Left 0
WINDOW 39 0 0 Left 0
SYMATTR InstName V3
SYMATTR Value 0V
TEXT -18 312 Left 2 !.tran 0.5ms
