Version 4
SHEET 1 1160 680
WIRE 560 -32 -32 -32
WIRE -32 -16 -32 -32
WIRE 752 0 608 0
WIRE 560 16 560 -32
WIRE 752 16 752 0
WIRE 608 32 608 0
WIRE 608 96 608 80
WIRE -32 112 -32 64
WIRE 128 112 128 64
WIRE 128 112 -32 112
WIRE 144 112 128 112
WIRE 752 112 752 96
WIRE -32 128 -32 112
WIRE 208 128 208 64
WIRE 208 128 176 128
WIRE 560 128 560 96
WIRE 560 128 208 128
WIRE 144 144 144 112
WIRE 176 144 176 128
WIRE -64 368 -160 368
WIRE 160 368 160 352
WIRE 160 368 16 368
WIRE -160 384 -160 368
WIRE -160 480 -160 464
FLAG -160 480 0
FLAG 608 96 0
FLAG 752 112 0
FLAG -32 128 0
SYMBOL res -80 384 R270
WINDOW 0 32 56 VTop 2
WINDOW 3 0 56 VBottom 2
SYMATTR InstName R1
SYMATTR Value 30
SYMBOL voltage -160 368 R0
WINDOW 123 0 0 Left 0
WINDOW 39 0 0 Left 0
SYMATTR InstName V1
SYMATTR Value 170V
SYMBOL voltage 752 0 R0
WINDOW 123 0 0 Left 0
WINDOW 39 0 0 Left 0
SYMATTR InstName V2
SYMATTR Value PULSE(0 5 5us 0 0 5us 10us)
SYMBOL sw 560 112 R180
WINDOW 3 37 35 Left 2
SYMATTR Value testsw
SYMATTR InstName S1
SYMBOL voltage -32 -32 R0
WINDOW 123 0 0 Left 0
WINDOW 39 0 0 Left 0
SYMATTR InstName V3
SYMATTR Value 5V
SYMBOL res 224 48 R90
WINDOW 0 0 56 VBottom 2
WINDOW 3 32 56 VTop 2
SYMATTR InstName R2
SYMATTR Value 2k
SYMBOL AutoGenerated\\STN6N60M2_V2 160 256 M270
SYMATTR InstName U2
TEXT 512 296 Left 2 !.tran 100us
TEXT 504 264 Left 2 !.model testsw SW(Ron=0.1 Roff=100meg Vt=2.5 Vh=0)
